# generated using pymatgen
data_LiFePO4
_symmetry_space_group_name_H-M   'P 1'
_cell_length_a   5.97075510
_cell_length_b   4.65491719
_cell_length_c   20.47239210
_cell_angle_alpha   90.00000000
_cell_angle_beta   90.00000000
_cell_angle_gamma   90.00002115
_symmetry_Int_Tables_number   1
_chemical_formula_structural   LiFePO4
_chemical_formula_sum   'Li4 Fe4 P4 O16'
_cell_volume   568.99677973
_cell_formula_units_Z   4
loop_
 _symmetry_equiv_pos_site_id
 _symmetry_equiv_pos_as_xyz
  1  'x, y, z'
loop_
 _atom_type_symbol
 _atom_type_oxidation_number
  Li+  1.0
  Fe2+  2.0
  P5+  5.0
  O2-  -2.0
loop_
 _atom_site_type_symbol
 _atom_site_label
 _atom_site_symmetry_multiplicity
 _atom_site_fract_x
 _atom_site_fract_y
 _atom_site_fract_z
 _atom_site_occupancy
  Li+  Li0  1  0.00000000  0.00000000  0.37500000  1
  Li+  Li1  1  0.50000000  0.50000000  0.12500000  1
  Li+  Li2  1  0.00000000  0.50000000  0.12500000  1
  Li+  Li3  1  0.50000000  0.00000000  0.37500000  1
  Fe2+  Fe4  1  0.25000000  0.52986573  0.26557564  1
  Fe2+  Fe5  1  0.75000000  0.02986773  0.23442437  1
  Fe2+  Fe6  1  0.25000000  0.97013327  0.01557564  1
  Fe2+  Fe7  1  0.75000000  0.47013327  0.48442437  1
  P5+  P8  1  0.25000000  0.41862257  0.42193315  1
  P5+  P9  1  0.75000000  0.91862357  0.07806685  1
  P5+  P10  1  0.25000000  0.08137543  0.17193315  1
  P5+  P11  1  0.75000000  0.58137643  0.32806685  1
  O2-  O12  1  0.25000000  0.74478656  0.42211533  1
  O2-  O13  1  0.54555803  0.71373534  0.29207726  1
  O2-  O14  1  0.95444297  0.71373534  0.29207726  1
  O2-  O15  1  0.75000000  0.25521444  0.32788517  1
  O2-  O16  1  0.75000000  0.70986445  0.39715428  1
  O2-  O17  1  0.75000000  0.24478556  0.07788466  1
  O2-  O18  1  0.04555803  0.28626566  0.45792274  1
  O2-  O19  1  0.45444197  0.21373434  0.20792274  1
  O2-  O20  1  0.54555803  0.78626566  0.04207726  1
  O2-  O21  1  0.95444297  0.78626566  0.04207726  1
  O2-  O22  1  0.25000000  0.29013655  0.35284572  1
  O2-  O23  1  0.25000000  0.20986345  0.10284572  1
  O2-  O24  1  0.75000000  0.79013755  0.14715428  1
  O2-  O25  1  0.25000000  0.75521544  0.17211533  1
  O2-  O26  1  0.04555803  0.21373434  0.20792274  1
  O2-  O27  1  0.45444197  0.28626566  0.45792274  1
