# generated using pymatgen
data_Si
_symmetry_space_group_name_H-M   'P 1'
_cell_length_a   3.86697465
_cell_length_b   18.13771886
_cell_length_c   56.56896230
_cell_angle_alpha   98.38019175
_cell_angle_beta   90.00000000
_cell_angle_gamma   90.00000000
_symmetry_Int_Tables_number   1
_chemical_formula_structural   Si
_chemical_formula_sum   Si96
_cell_volume   3925.27611107
_cell_formula_units_Z   96
loop_
 _symmetry_equiv_pos_site_id
 _symmetry_equiv_pos_as_xyz
  1  'x, y, z'
loop_
 _atom_site_type_symbol
 _atom_site_label
 _atom_site_symmetry_multiplicity
 _atom_site_fract_x
 _atom_site_fract_y
 _atom_site_fract_z
 _atom_site_occupancy
  Si  Si1  1  0.00000000  0.94876800  0.71582300  1.0
  Si  Si2  1  0.00000000  0.79766000  0.54698200  1.0
  Si  Si3  1  0.00000000  0.63064500  0.38014400  1.0
  Si  Si4  1  0.00000000  0.67122300  0.67064300  1.0
  Si  Si5  1  0.00000000  0.50448800  0.50443700  1.0
  Si  Si6  1  0.00000000  0.33655700  0.33805400  1.0
  Si  Si7  1  0.00000000  0.32373300  0.69562300  1.0
  Si  Si8  1  0.00000000  0.15085900  0.52621600  1.0
  Si  Si9  1  0.00000000  0.98609100  0.36205000  1.0
  Si  Si10  1  0.00000000  0.02704200  0.65225800  1.0
  Si  Si11  1  0.00000000  0.86002700  0.48500900  1.0
  Si  Si12  1  0.00000000  0.69570200  0.31761000  1.0
  Si  Si13  1  0.00000000  0.73450600  0.60882800  1.0
  Si  Si14  1  0.00000000  0.56700700  0.44214300  1.0
  Si  Si15  1  0.00000000  0.41821500  0.28657800  1.0
  Si  Si16  1  0.00000000  0.57380100  0.73226900  1.0
  Si  Si17  1  0.00000000  0.44227400  0.56702200  1.0
  Si  Si18  1  0.00000000  0.27350700  0.39980500  1.0
  Si  Si19  1  0.00000000  0.37872400  0.62908100  1.0
  Si  Si20  1  0.00000000  0.21393400  0.46377300  1.0
  Si  Si21  1  0.00000000  0.03721100  0.29479900  1.0
  Si  Si22  1  0.00000000  0.78413400  0.27165300  1.0
  Si  Si23  1  0.00000000  0.09048100  0.58980900  1.0
  Si  Si24  1  0.00000000  0.92219500  0.42298300  1.0
  Si  Si25  1  0.00000000  0.98552700  0.61031400  1.0
  Si  Si26  1  0.00000000  0.81773500  0.44345600  1.0
  Si  Si27  1  0.00000000  0.65521900  0.27525000  1.0
  Si  Si28  1  0.00000000  0.85068900  0.74030600  1.0
  Si  Si29  1  0.00000000  0.69264000  0.56717600  1.0
  Si  Si30  1  0.00000000  0.52517800  0.40032300  1.0
  Si  Si31  1  0.00000000  0.94869700  0.25775500  1.0
  Si  Si32  1  0.00000000  0.33736600  0.58767500  1.0
  Si  Si33  1  0.00000000  0.17255800  0.42220700  1.0
  Si  Si34  1  0.00000000  0.21330600  0.71421900  1.0
  Si  Si35  1  0.00000000  0.04829800  0.54784700  1.0
  Si  Si36  1  0.00000000  0.87991200  0.38165200  1.0
  Si  Si37  1  0.00000000  0.92111000  0.67243200  1.0
  Si  Si38  1  0.00000000  0.75526700  0.50535300  1.0
  Si  Si39  1  0.00000000  0.59015000  0.33820200  1.0
  Si  Si40  1  0.00000000  0.62977700  0.62909700  1.0
  Si  Si41  1  0.00000000  0.46234600  0.46269200  1.0
  Si  Si42  1  0.00000000  0.29539100  0.29564200  1.0
  Si  Si43  1  0.00000000  0.56354700  0.68926400  1.0
  Si  Si44  1  0.00000000  0.40075200  0.52548100  1.0
  Si  Si45  1  0.00000000  0.22963200  0.35771900  1.0
  Si  Si46  1  0.00000000  0.28115500  0.65304400  1.0
  Si  Si47  1  0.00000000  0.10950800  0.48463600  1.0
  Si  Si48  1  0.00000000  0.94664900  0.32108500  1.0
  Si  Si49  1  0.50000000  0.14210900  0.70435800  1.0
  Si  Si50  1  0.50000000  0.97515400  0.53730800  1.0
  Si  Si51  1  0.50000000  0.80772300  0.37090300  1.0
  Si  Si52  1  0.50000000  0.84735000  0.66179800  1.0
  Si  Si53  1  0.50000000  0.68223300  0.49464700  1.0
  Si  Si54  1  0.50000000  0.51639000  0.32756800  1.0
  Si  Si55  1  0.50000000  0.49085100  0.67891500  1.0
  Si  Si56  1  0.50000000  0.32799200  0.51536400  1.0
  Si  Si57  1  0.50000000  0.15634500  0.34695600  1.0
  Si  Si58  1  0.50000000  0.20786800  0.64228100  1.0
  Si  Si59  1  0.50000000  0.03674800  0.47451900  1.0
  Si  Si60  1  0.50000000  0.87395300  0.31073600  1.0
  Si  Si61  1  0.50000000  0.91232200  0.59967700  1.0
  Si  Si62  1  0.50000000  0.74486000  0.43282400  1.0
  Si  Si63  1  0.50000000  0.58681100  0.25969400  1.0
  Si  Si64  1  0.50000000  0.78228100  0.72475000  1.0
  Si  Si65  1  0.50000000  0.61976500  0.55654400  1.0
  Si  Si66  1  0.50000000  0.45197300  0.38968600  1.0
  Si  Si67  1  0.50000000  0.55758800  0.61834800  1.0
  Si  Si68  1  0.50000000  0.38920200  0.45215300  1.0
  Si  Si69  1  0.50000000  0.22419400  0.28578100  1.0
  Si  Si70  1  0.50000000  0.48880300  0.74224500  1.0
  Si  Si71  1  0.50000000  0.26494200  0.57779300  1.0
  Si  Si72  1  0.50000000  0.10013400  0.41232500  1.0
  Si  Si73  1  0.50000000  0.10094300  0.66194600  1.0
  Si  Si74  1  0.50000000  0.93301200  0.49556300  1.0
  Si  Si75  1  0.50000000  0.76627700  0.32935700  1.0
  Si  Si76  1  0.50000000  0.80685500  0.61985600  1.0
  Si  Si77  1  0.50000000  0.63984000  0.45301800  1.0
  Si  Si78  1  0.50000000  0.48873200  0.28417700  1.0
  Si  Si79  1  0.50000000  0.45140900  0.63795000  1.0
  Si  Si80  1  0.50000000  0.28664100  0.47378400  1.0
  Si  Si81  1  0.50000000  0.11376700  0.30437700  1.0
  Si  Si82  1  0.50000000  0.16399300  0.60019500  1.0
  Si  Si83  1  0.50000000  0.99522600  0.43297800  1.0
  Si  Si84  1  0.50000000  0.86369900  0.26773100  1.0
  Si  Si85  1  0.50000000  0.01928500  0.71342200  1.0
  Si  Si86  1  0.50000000  0.87049300  0.55785700  1.0
  Si  Si87  1  0.50000000  0.70299400  0.39117200  1.0
  Si  Si88  1  0.50000000  0.74179800  0.68239000  1.0
  Si  Si89  1  0.50000000  0.57747300  0.51499100  1.0
  Si  Si90  1  0.50000000  0.41045800  0.34774200  1.0
  Si  Si91  1  0.50000000  0.65336600  0.72834700  1.0
  Si  Si92  1  0.50000000  0.51530500  0.57701700  1.0
  Si  Si93  1  0.50000000  0.34701900  0.41019100  1.0
  Si  Si94  1  0.50000000  0.40028900  0.70520100  1.0
  Si  Si95  1  0.50000000  0.22356600  0.53622700  1.0
  Si  Si96  1  0.50000000  0.05877600  0.37091900  1.0
