# generated using pymatgen
data_Fe
_symmetry_space_group_name_H-M   'P 1'
_cell_length_a   2.45135593
_cell_length_b   2.45135593
_cell_length_c   24.01702749
_cell_angle_alpha   90.00000000
_cell_angle_beta   90.00000000
_cell_angle_gamma   109.46274731
_symmetry_Int_Tables_number   1
_chemical_formula_structural   Fe
_chemical_formula_sum   Fe6
_cell_volume   136.07503181
_cell_formula_units_Z   6
loop_
 _symmetry_equiv_pos_site_id
 _symmetry_equiv_pos_as_xyz
  1  'x, y, z'
loop_
 _atom_site_type_symbol
 _atom_site_label
 _atom_site_symmetry_multiplicity
 _atom_site_fract_x
 _atom_site_fract_y
 _atom_site_fract_z
 _atom_site_occupancy
  Fe  Fe1  1  0.50000000  0.50000000  0.91760700  1.0
  Fe  Fe2  1  0.00000000  0.00000000  0.00101400  1.0
  Fe  Fe3  1  0.50000000  0.50000000  0.74991900  1.0
  Fe  Fe4  1  0.00000000  0.00000000  0.83341400  1.0
  Fe  Fe5  1  0.50000000  0.50000000  0.58231900  1.0
  Fe  Fe6  1  0.00000000  0.00000000  0.66572700  1.0
