# generated using pymatgen
data_Fe
_symmetry_space_group_name_H-M   'P 1'
_cell_length_a   4.00385497
_cell_length_b   4.69459134
_cell_length_c   28.97537502
_cell_angle_alpha   90.83950605
_cell_angle_beta   90.00000000
_cell_angle_gamma   90.00000000
_symmetry_Int_Tables_number   1
_chemical_formula_structural   Fe
_chemical_formula_sum   Fe24
_cell_volume   544.57609919
_cell_formula_units_Z   24
loop_
 _symmetry_equiv_pos_site_id
 _symmetry_equiv_pos_as_xyz
  1  'x, y, z'
loop_
 _atom_site_type_symbol
 _atom_site_label
 _atom_site_symmetry_multiplicity
 _atom_site_fract_x
 _atom_site_fract_y
 _atom_site_fract_z
 _atom_site_occupancy
  Fe  Fe1  1  0.50000000  0.25488000  0.98660200  1.0
  Fe  Fe2  1  0.50000000  0.79125300  0.94783300  1.0
  Fe  Fe3  1  0.00000000  0.54745000  0.97006700  1.0
  Fe  Fe4  1  0.00000000  0.07519100  0.93180000  1.0
  Fe  Fe5  1  0.00000000  0.61573600  0.88612400  1.0
  Fe  Fe6  1  0.00000000  0.15601100  0.84447100  1.0
  Fe  Fe7  1  0.50000000  0.34105200  0.90661400  1.0
  Fe  Fe8  1  0.50000000  0.88532400  0.86482000  1.0
  Fe  Fe9  1  0.50000000  0.42634500  0.82302700  1.0
  Fe  Fe10  1  0.50000000  0.96827300  0.78127400  1.0
  Fe  Fe11  1  0.00000000  0.69742100  0.80225300  1.0
  Fe  Fe12  1  0.00000000  0.23957900  0.76045300  1.0
  Fe  Fe13  1  0.00000000  0.78172700  0.71872600  1.0
  Fe  Fe14  1  0.00000000  0.32365500  0.67697300  1.0
  Fe  Fe15  1  0.50000000  0.51042100  0.73954700  1.0
  Fe  Fe16  1  0.50000000  0.05257900  0.69774700  1.0
  Fe  Fe17  1  0.50000000  0.59398900  0.65552900  1.0
  Fe  Fe18  1  0.50000000  0.13426400  0.61387600  1.0
  Fe  Fe19  1  0.00000000  0.86467600  0.63518000  1.0
  Fe  Fe20  1  0.00000000  0.40894800  0.59338600  1.0
  Fe  Fe21  1  0.00000000  0.95874700  0.55216700  1.0
  Fe  Fe22  1  0.00000000  0.49512000  0.51339800  1.0
  Fe  Fe23  1  0.50000000  0.67480900  0.56820000  1.0
  Fe  Fe24  1  0.50000000  0.20255000  0.52993300  1.0
