# generated using pymatgen
data_Si
_symmetry_space_group_name_H-M   'P 1'
_cell_length_a   5.46872800
_cell_length_b   10.23105326
_cell_length_c   30.69315978
_cell_angle_alpha   81.78678930
_cell_angle_beta   84.88891030
_cell_angle_gamma   74.49864043
_symmetry_Int_Tables_number   1
_chemical_formula_structural   Si
_chemical_formula_sum   Si40
_cell_volume   1635.53171433
_cell_formula_units_Z   40
loop_
 _symmetry_equiv_pos_site_id
 _symmetry_equiv_pos_as_xyz
  1  'x, y, z'
loop_
 _atom_site_type_symbol
 _atom_site_label
 _atom_site_symmetry_multiplicity
 _atom_site_fract_x
 _atom_site_fract_y
 _atom_site_fract_z
 _atom_site_occupancy
  Si  Si1  1  0.39296200  0.00642300  0.19480000  1.0
  Si  Si2  1  0.20176100  0.51714500  0.09085800  1.0
  Si  Si3  1  0.00139900  0.75654400  0.24363200  1.0
  Si  Si4  1  0.80751400  0.25764400  0.14183300  1.0
  Si  Si5  1  0.49864000  0.73776900  0.05318500  1.0
  Si  Si6  1  0.79868200  0.12314400  0.01544600  1.0
  Si  Si7  1  0.45060000  0.44663000  0.15435700  1.0
  Si  Si8  1  0.19638100  0.96520000  0.05501900  1.0
  Si  Si9  1  0.04486800  0.19573700  0.20662600  1.0
  Si  Si10  1  0.83206000  0.70031000  0.10370700  1.0
  Si  Si11  1  0.99102400  0.88150900  0.12017300  1.0
  Si  Si12  1  0.75717000  0.33736500  0.03739600  1.0
  Si  Si13  1  0.60129100  0.63068100  0.16885900  1.0
  Si  Si14  1  0.43940700  0.11961900  0.06749500  1.0
  Si  Si15  1  0.20525800  0.38096100  0.21797700  1.0
  Si  Si16  1  0.09407800  0.31396700  0.08075200  1.0
  Si  Si17  1  0.85638300  0.56791100  0.23097400  1.0
  Si  Si18  1  0.64774200  0.06835700  0.13374900  1.0
  Si  Si19  1  0.43004200  0.55363700  0.02091700  1.0
  Si  Si20  1  0.25012200  0.81707700  0.18113200  1.0
  Si  Si21  1  0.45361900  0.73480000  0.44498100  1.0
  Si  Si22  1  0.19940000  0.25337000  0.34564300  1.0
  Si  Si23  1  0.85131800  0.57685600  0.48455400  1.0
  Si  Si24  1  0.81794000  0.99969000  0.39629300  1.0
  Si  Si25  1  0.60513200  0.50426300  0.29337400  1.0
  Si  Si26  1  0.64860100  0.94345600  0.25636800  1.0
  Si  Si27  1  0.44823900  0.18285500  0.40914200  1.0
  Si  Si28  1  0.25703800  0.69357700  0.30520000  1.0
  Si  Si29  1  0.15136000  0.96223100  0.44681500  1.0
  Si  Si30  1  0.84248600  0.44235600  0.35816700  1.0
  Si  Si31  1  0.00225800  0.63164300  0.36625100  1.0
  Si  Si32  1  0.79361700  0.13208900  0.26902600  1.0
  Si  Si33  1  0.55592200  0.38603300  0.41924800  1.0
  Si  Si34  1  0.39987800  0.88292300  0.31886800  1.0
  Si  Si35  1  0.21995800  0.14636300  0.47908300  1.0
  Si  Si36  1  0.04870900  0.06931900  0.33114100  1.0
  Si  Si37  1  0.89283000  0.36263500  0.46260400  1.0
  Si  Si38  1  0.65897600  0.81849100  0.37982700  1.0
  Si  Si39  1  0.44474200  0.31903900  0.28202300  1.0
  Si  Si40  1  0.21059300  0.58038100  0.43250500  1.0
