# generated using pymatgen
data_Fe
_symmetry_space_group_name_H-M   'P 1'
_cell_length_a   4.00270521
_cell_length_b   6.93308273
_cell_length_c   30.74973124
_cell_angle_alpha   92.16067704
_cell_angle_beta   90.00000000
_cell_angle_gamma   106.77817166
_symmetry_Int_Tables_number   1
_chemical_formula_structural   Fe
_chemical_formula_sum   Fe36
_cell_volume   816.37774229
_cell_formula_units_Z   36
loop_
 _symmetry_equiv_pos_site_id
 _symmetry_equiv_pos_as_xyz
  1  'x, y, z'
loop_
 _atom_site_type_symbol
 _atom_site_label
 _atom_site_symmetry_multiplicity
 _atom_site_fract_x
 _atom_site_fract_y
 _atom_site_fract_z
 _atom_site_occupancy
  Fe  Fe1  1  0.50685300  0.01370600  0.49304300  1.0
  Fe  Fe2  1  0.67530700  0.35061400  0.32629500  1.0
  Fe  Fe3  1  0.59042600  0.18085200  0.40943600  1.0
  Fe  Fe4  1  0.40764900  0.81529900  0.26884600  1.0
  Fe  Fe5  1  0.31325400  0.62650900  0.35288100  1.0
  Fe  Fe6  1  0.22927400  0.45854700  0.43741800  1.0
  Fe  Fe7  1  0.03567000  0.07134100  0.29555000  1.0
  Fe  Fe8  1  0.95134300  0.90268500  0.38092900  1.0
  Fe  Fe9  1  0.86791100  0.73582100  0.46523500  1.0
  Fe  Fe10  1  0.85303800  0.70607500  0.30873800  1.0
  Fe  Fe11  1  0.77159500  0.54319100  0.39574000  1.0
  Fe  Fe12  1  0.68722100  0.37444200  0.47913100  1.0
  Fe  Fe13  1  0.59593600  0.19187100  0.25767000  1.0
  Fe  Fe14  1  0.49413300  0.98826600  0.33886400  1.0
  Fe  Fe15  1  0.40981500  0.81963100  0.42326800  1.0
  Fe  Fe16  1  0.22085100  0.44170200  0.28281700  1.0
  Fe  Fe17  1  0.13215100  0.26430300  0.36752700  1.0
  Fe  Fe18  1  0.04847200  0.09694300  0.45113300  1.0
  Fe  Fe19  1  0.23739700  0.47479600  0.74233000  1.0
  Fe  Fe20  1  0.42351800  0.84703500  0.57673200  1.0
  Fe  Fe21  1  0.33920100  0.67840100  0.66113600  1.0
  Fe  Fe22  1  0.14611200  0.29222500  0.52086900  1.0
  Fe  Fe23  1  0.06173800  0.12347600  0.60426000  1.0
  Fe  Fe24  1  0.98029600  0.96059100  0.69126200  1.0
  Fe  Fe25  1  0.78486100  0.56972300  0.54886700  1.0
  Fe  Fe26  1  0.70118200  0.40236400  0.63247300  1.0
  Fe  Fe27  1  0.61248300  0.22496500  0.71718300  1.0
  Fe  Fe28  1  0.60406000  0.20811900  0.56258200  1.0
  Fe  Fe29  1  0.52007900  0.04015800  0.64711900  1.0
  Fe  Fe30  1  0.42568400  0.85136800  0.73115400  1.0
  Fe  Fe31  1  0.32648000  0.65296100  0.50695700  1.0
  Fe  Fe32  1  0.24290800  0.48581500  0.59056400  1.0
  Fe  Fe33  1  0.15802600  0.31605200  0.67370500  1.0
  Fe  Fe34  1  0.96542300  0.93084600  0.53476500  1.0
  Fe  Fe35  1  0.88199000  0.76398200  0.61907100  1.0
  Fe  Fe36  1  0.79766300  0.59532500  0.70445000  1.0
