# generated using pymatgen
data_Si
_symmetry_space_group_name_H-M   'P 1'
_cell_length_a   3.86697465
_cell_length_b   15.94394495
_cell_length_c   24.76071913
_cell_angle_alpha   105.37550393
_cell_angle_beta   90.00000000
_cell_angle_gamma   90.00000000
_symmetry_Int_Tables_number   1
_chemical_formula_structural   Si
_chemical_formula_sum   Si36
_cell_volume   1471.97854170
_cell_formula_units_Z   36
loop_
 _symmetry_equiv_pos_site_id
 _symmetry_equiv_pos_as_xyz
  1  'x, y, z'
loop_
 _atom_site_type_symbol
 _atom_site_label
 _atom_site_symmetry_multiplicity
 _atom_site_fract_x
 _atom_site_fract_y
 _atom_site_fract_z
 _atom_site_occupancy
  Si  Si1  1  0.50000000  0.93101900  0.28577600  1.0
  Si  Si2  1  0.50000000  0.10176900  0.40148600  1.0
  Si  Si3  1  0.50000000  0.50691400  0.32998000  1.0
  Si  Si4  1  0.00000000  0.12695700  0.35155400  1.0
  Si  Si5  1  0.00000000  0.55204900  0.28675800  1.0
  Si  Si6  1  0.00000000  0.76203500  0.41537100  1.0
  Si  Si7  1  0.00000000  0.71443300  0.31646200  1.0
  Si  Si8  1  0.00000000  0.00516000  0.26692200  1.0
  Si  Si9  1  0.00000000  0.28630700  0.35773000  1.0
  Si  Si10  1  0.50000000  0.94652800  0.38862000  1.0
  Si  Si11  1  0.50000000  0.35968300  0.33906100  1.0
  Si  Si12  1  0.50000000  0.79459700  0.30281400  1.0
  Si  Si13  1  0.50000000  0.71354900  0.45172500  1.0
  Si  Si14  1  0.50000000  0.94158300  0.56971300  1.0
  Si  Si15  1  0.50000000  0.32461000  0.50187700  1.0
  Si  Si16  1  0.00000000  0.98718400  0.53075700  1.0
  Si  Si17  1  0.00000000  0.36061500  0.45683600  1.0
  Si  Si18  1  0.00000000  0.58542200  0.56588500  1.0
  Si  Si19  1  0.00000000  0.51281200  0.46924300  1.0
  Si  Si20  1  0.00000000  0.91457300  0.43411300  1.0
  Si  Si21  1  0.00000000  0.13938700  0.54317800  1.0
  Si  Si22  1  0.50000000  0.78643400  0.54826400  1.0
  Si  Si23  1  0.50000000  0.17538900  0.49813100  1.0
  Si  Si24  1  0.50000000  0.55839500  0.43027500  1.0
  Si  Si25  1  0.50000000  0.55347800  0.61138300  1.0
  Si  Si26  1  0.50000000  0.70539700  0.69718600  1.0
  Si  Si27  1  0.50000000  0.14035800  0.66096500  1.0
  Si  Si28  1  0.00000000  0.78555400  0.68353300  1.0
  Si  Si29  1  0.00000000  0.21370900  0.64228300  1.0
  Si  Si30  1  0.00000000  0.49484500  0.73308600  1.0
  Si  Si31  1  0.00000000  0.37305500  0.64845200  1.0
  Si  Si32  1  0.00000000  0.73796100  0.58462600  1.0
  Si  Si33  1  0.00000000  0.94792800  0.71320200  1.0
  Si  Si34  1  0.50000000  0.56898000  0.71423000  1.0
  Si  Si35  1  0.50000000  0.99309300  0.67000100  1.0
  Si  Si36  1  0.50000000  0.39824000  0.59852100  1.0
