# generated using pymatgen
data_Fe
_symmetry_space_group_name_H-M   'P 1'
_cell_length_a   4.00222438
_cell_length_b   8.49105742
_cell_length_c   20.80005299
_cell_angle_alpha   97.83642076
_cell_angle_beta   90.00000000
_cell_angle_gamma   103.63129169
_symmetry_Int_Tables_number   1
_chemical_formula_structural   Fe
_chemical_formula_sum   Fe30
_cell_volume   680.14614991
_cell_formula_units_Z   30
loop_
 _symmetry_equiv_pos_site_id
 _symmetry_equiv_pos_as_xyz
  1  'x, y, z'
loop_
 _atom_site_type_symbol
 _atom_site_label
 _atom_site_symmetry_multiplicity
 _atom_site_fract_x
 _atom_site_fract_y
 _atom_site_fract_z
 _atom_site_occupancy
  Fe  Fe1  1  0.65453800  0.30907700  0.33750600  1.0
  Fe  Fe2  1  0.36016000  0.72032100  0.31062800  1.0
  Fe  Fe3  1  0.06147500  0.12295100  0.27515100  1.0
  Fe  Fe4  1  0.90945500  0.81891100  0.26248200  1.0
  Fe  Fe5  1  0.50592600  0.01185200  0.32112800  1.0
  Fe  Fe6  1  0.21244600  0.42489400  0.29120600  1.0
  Fe  Fe7  1  0.55794800  0.11589700  0.44147300  1.0
  Fe  Fe8  1  0.25739700  0.51479400  0.40720800  1.0
  Fe  Fe9  1  0.95815300  0.91630800  0.37486800  1.0
  Fe  Fe10  1  0.80427600  0.60855200  0.35233100  1.0
  Fe  Fe11  1  0.40760300  0.81520700  0.42515500  1.0
  Fe  Fe12  1  0.10807700  0.21615500  0.39060200  1.0
  Fe  Fe13  1  0.45862700  0.91725400  0.54269400  1.0
  Fe  Fe14  1  0.15844900  0.31689800  0.50822800  1.0
  Fe  Fe15  1  0.85784500  0.71569100  0.47454300  1.0
  Fe  Fe16  1  0.70803900  0.41608000  0.45730600  1.0
  Fe  Fe17  1  0.30882100  0.61764300  0.52545700  1.0
  Fe  Fe18  1  0.00821700  0.01643600  0.49177200  1.0
  Fe  Fe19  1  0.36239100  0.72478200  0.64766900  1.0
  Fe  Fe20  1  0.05858900  0.11717900  0.60939800  1.0
  Fe  Fe21  1  0.75906300  0.51812700  0.57484500  1.0
  Fe  Fe22  1  0.60871800  0.21743700  0.55852700  1.0
  Fe  Fe23  1  0.20851300  0.41702600  0.62513200  1.0
  Fe  Fe24  1  0.90926900  0.81854000  0.59279200  1.0
  Fe  Fe25  1  0.25721100  0.51442300  0.73751800  1.0
  Fe  Fe26  1  0.95422000  0.90844000  0.70879400  1.0
  Fe  Fe27  1  0.66074000  0.32148200  0.67887200  1.0
  Fe  Fe28  1  0.51212800  0.02425700  0.66249400  1.0
  Fe  Fe29  1  0.10519100  0.21038300  0.72484900  1.0
  Fe  Fe30  1  0.80650600  0.61301300  0.68937200  1.0
