# generated using pymatgen
data_Fe
_symmetry_space_group_name_H-M   'P 1'
_cell_length_a   2.83079700
_cell_length_b   6.32870742
_cell_length_c   25.31483102
_cell_angle_alpha   89.99999899
_cell_angle_beta   90.00000000
_cell_angle_gamma   90.00000000
_symmetry_Int_Tables_number   1
_chemical_formula_structural   Fe
_chemical_formula_sum   Fe20
_cell_volume   453.52243722
_cell_formula_units_Z   20
loop_
 _symmetry_equiv_pos_site_id
 _symmetry_equiv_pos_as_xyz
  1  'x, y, z'
loop_
 _atom_site_type_symbol
 _atom_site_label
 _atom_site_symmetry_multiplicity
 _atom_site_fract_x
 _atom_site_fract_y
 _atom_site_fract_z
 _atom_site_occupancy
  Fe  Fe1  1  0.00000000  0.59968700  0.19953800  1.0
  Fe  Fe2  1  0.00000000  0.20142800  0.15010000  1.0
  Fe  Fe3  1  0.00000000  0.80012300  0.09827900  1.0
  Fe  Fe4  1  0.00000000  0.40276600  0.04554400  1.0
  Fe  Fe5  1  0.00000000  0.02000100  0.00138500  1.0
  Fe  Fe6  1  0.50000000  0.49944300  0.12310400  1.0
  Fe  Fe7  1  0.50000000  0.10401100  0.07489500  1.0
  Fe  Fe8  1  0.50000000  0.71031300  0.02180500  1.0
  Fe  Fe9  1  0.50000000  0.30051900  0.22513100  1.0
  Fe  Fe10  1  0.50000000  0.89957100  0.17462800  1.0
  Fe  Fe11  1  0.00000000  0.58968700  0.45319500  1.0
  Fe  Fe12  1  0.00000000  0.19598900  0.40010500  1.0
  Fe  Fe13  1  0.00000000  0.80055700  0.35189600  1.0
  Fe  Fe14  1  0.00000000  0.40042900  0.30037200  1.0
  Fe  Fe15  1  0.00000000  0.99948100  0.24986900  1.0
  Fe  Fe16  1  0.50000000  0.49987700  0.37672100  1.0
  Fe  Fe17  1  0.50000000  0.09857200  0.32490000  1.0
  Fe  Fe18  1  0.50000000  0.70031300  0.27546200  1.0
  Fe  Fe19  1  0.50000000  0.27999900  0.47361500  1.0
  Fe  Fe20  1  0.50000000  0.89723400  0.42945600  1.0
