# generated using pymatgen
data_Fe
_symmetry_space_group_name_H-M   'P 1'
_cell_length_a   2.83092600
_cell_length_b   2.83092600
_cell_length_c   22.64740800
_cell_angle_alpha   90.00000000
_cell_angle_beta   90.00000000
_cell_angle_gamma   90.00000000
_symmetry_Int_Tables_number   1
_chemical_formula_structural   Fe
_chemical_formula_sum   Fe8
_cell_volume   181.49954404
_cell_formula_units_Z   8
loop_
 _symmetry_equiv_pos_site_id
 _symmetry_equiv_pos_as_xyz
  1  'x, y, z'
loop_
 _atom_site_type_symbol
 _atom_site_label
 _atom_site_symmetry_multiplicity
 _atom_site_fract_x
 _atom_site_fract_y
 _atom_site_fract_z
 _atom_site_occupancy
  Fe  Fe1  1  0.00000000  0.00000000  0.99553000  1.0
  Fe  Fe2  1  0.50000000  0.50000000  0.05787700  1.0
  Fe  Fe3  1  0.00000000  0.00000000  0.12295700  1.0
  Fe  Fe4  1  0.50000000  0.50000000  0.18707400  1.0
  Fe  Fe5  1  0.00000000  0.00000000  0.25042600  1.0
  Fe  Fe6  1  0.50000000  0.50000000  0.31454300  1.0
  Fe  Fe7  1  0.00000000  0.00000000  0.37962300  1.0
  Fe  Fe8  1  0.50000000  0.50000000  0.44197000  1.0
