# generated using pymatgen
data_Si
_symmetry_space_group_name_H-M   'P 1'
_cell_length_a   6.69779657
_cell_length_b   8.64681819
_cell_length_c   26.51064257
_cell_angle_alpha   93.74022039
_cell_angle_beta   94.83089688
_cell_angle_gamma   104.96321743
_symmetry_Int_Tables_number   1
_chemical_formula_structural   Si
_chemical_formula_sum   Si36
_cell_volume   1471.97854192
_cell_formula_units_Z   36
loop_
 _symmetry_equiv_pos_site_id
 _symmetry_equiv_pos_as_xyz
  1  'x, y, z'
loop_
 _atom_site_type_symbol
 _atom_site_label
 _atom_site_symmetry_multiplicity
 _atom_site_fract_x
 _atom_site_fract_y
 _atom_site_fract_z
 _atom_site_occupancy
  Si  Si1  1  0.70152000  0.22327300  0.26733300  1.0
  Si  Si2  1  0.99090200  0.65498500  0.31906500  1.0
  Si  Si3  1  0.12813400  0.07320700  0.37088800  1.0
  Si  Si4  1  0.21769100  0.90632200  0.30549500  1.0
  Si  Si5  1  0.37827800  0.32726500  0.37769500  1.0
  Si  Si6  1  0.03654400  0.40285000  0.28811800  1.0
  Si  Si7  1  0.41296800  0.38660600  0.29146000  1.0
  Si  Si8  1  0.53178700  0.86774500  0.34600900  1.0
  Si  Si9  1  0.71257500  0.30247300  0.40467800  1.0
  Si  Si10  1  0.95876900  0.55372000  0.40297700  1.0
  Si  Si11  1  0.63421900  0.64423400  0.31295600  1.0
  Si  Si12  1  0.79367100  0.11495100  0.34570000  1.0
  Si  Si13  1  0.29424400  0.52717800  0.43109200  1.0
  Si  Si14  1  0.45680300  0.97275200  0.48530400  1.0
  Si  Si15  1  0.62644300  0.41681000  0.54411000  1.0
  Si  Si16  1  0.70856700  0.22331500  0.48776400  1.0
  Si  Si17  1  0.87519300  0.66696500  0.54179700  1.0
  Si  Si18  1  0.54240100  0.77708900  0.42979600  1.0
  Si  Si19  1  0.87480700  0.74970200  0.45820300  1.0
  Si  Si20  1  0.04143300  0.19335200  0.51223600  1.0
  Si  Si21  1  0.20759900  0.63957800  0.57020400  1.0
  Si  Si22  1  0.45575600  0.88948900  0.56890800  1.0
  Si  Si23  1  0.12355700  0.99985700  0.45589000  1.0
  Si  Si24  1  0.29319700  0.44391500  0.51469600  1.0
  Si  Si25  1  0.79123100  0.86294700  0.59702300  1.0
  Si  Si26  1  0.95632900  0.30171600  0.65430000  1.0
  Si  Si27  1  0.11578100  0.77243300  0.68704400  1.0
  Si  Si28  1  0.21821300  0.54892200  0.65399100  1.0
  Si  Si29  1  0.33703200  0.03006100  0.70854000  1.0
  Si  Si30  1  0.03742500  0.11419400  0.59532200  1.0
  Si  Si31  1  0.37172200  0.08940100  0.62230500  1.0
  Si  Si32  1  0.53230900  0.51034500  0.69450500  1.0
  Si  Si33  1  0.71345600  0.01381700  0.71188200  1.0
  Si  Si34  1  0.04848000  0.19339400  0.73266700  1.0
  Si  Si35  1  0.62186600  0.34345900  0.62911200  1.0
  Si  Si36  1  0.75909800  0.76168200  0.68093500  1.0
