# generated using pymatgen
data_Fe
_symmetry_space_group_name_H-M   'P 1'
_cell_length_a   2.45133284
_cell_length_b   6.16889206
_cell_length_c   27.26191234
_cell_angle_alpha   87.96121922
_cell_angle_beta   88.29539801
_cell_angle_gamma   82.38431776
_symmetry_Int_Tables_number   1
_chemical_formula_structural   Fe
_chemical_formula_sum   Fe18
_cell_volume   408.22939847
_cell_formula_units_Z   18
loop_
 _symmetry_equiv_pos_site_id
 _symmetry_equiv_pos_as_xyz
  1  'x, y, z'
loop_
 _atom_site_type_symbol
 _atom_site_label
 _atom_site_symmetry_multiplicity
 _atom_site_fract_x
 _atom_site_fract_y
 _atom_site_fract_z
 _atom_site_occupancy
  Fe  Fe1  1  0.88975200  0.48596900  0.51400600  1.0
  Fe  Fe2  1  0.58683100  0.31688200  0.68273000  1.0
  Fe  Fe3  1  0.22726300  0.40297300  0.59756300  1.0
  Fe  Fe4  1  0.07172200  0.59559300  0.73448900  1.0
  Fe  Fe5  1  0.77503400  0.68172400  0.65309700  1.0
  Fe  Fe6  1  0.44597500  0.76461500  0.56940200  1.0
  Fe  Fe7  1  0.32826100  0.95982900  0.71080000  1.0
  Fe  Fe8  1  0.00841100  0.04268400  0.62597800  1.0
  Fe  Fe9  1  0.66955300  0.12473900  0.54185600  1.0
  Fe  Fe10  1  0.92860200  0.73789400  0.26549200  1.0
  Fe  Fe11  1  0.55394500  0.56864400  0.43058400  1.0
  Fe  Fe12  1  0.22496900  0.65156300  0.34692000  1.0
  Fe  Fe13  1  0.11006000  0.84736400  0.48599300  1.0
  Fe  Fe14  1  0.77270300  0.93024300  0.40242700  1.0
  Fe  Fe15  1  0.41336800  0.01642500  0.31727600  1.0
  Fe  Fe16  1  0.33034200  0.20863200  0.45814800  1.0
  Fe  Fe17  1  0.99156600  0.29064000  0.37403100  1.0
  Fe  Fe18  1  0.67164200  0.37358500  0.28920800  1.0
