# generated using pymatgen
data_Fe
_symmetry_space_group_name_H-M   'P 1'
_cell_length_a   4.00378992
_cell_length_b   4.00378992
_cell_length_c   29.41953595
_cell_angle_alpha   90.00000000
_cell_angle_beta   90.00000000
_cell_angle_gamma   60.00000000
_symmetry_Int_Tables_number   1
_chemical_formula_structural   Fe
_chemical_formula_sum   Fe18
_cell_volume   408.42189260
_cell_formula_units_Z   18
loop_
 _symmetry_equiv_pos_site_id
 _symmetry_equiv_pos_as_xyz
  1  'x, y, z'
loop_
 _atom_site_type_symbol
 _atom_site_label
 _atom_site_symmetry_multiplicity
 _atom_site_fract_x
 _atom_site_fract_y
 _atom_site_fract_z
 _atom_site_occupancy
  Fe  Fe1  1  0.66666667  0.66666667  0.05191800  1.0
  Fe  Fe2  1  0.00000000  0.00000000  0.00231500  1.0
  Fe  Fe3  1  0.33333333  0.33333333  0.11098100  1.0
  Fe  Fe4  1  0.66666667  0.66666667  0.13859800  1.0
  Fe  Fe5  1  0.00000000  0.00000000  0.08294300  1.0
  Fe  Fe6  1  0.33333333  0.33333333  0.02899200  1.0
  Fe  Fe7  1  0.66666667  0.66666667  0.22222900  1.0
  Fe  Fe8  1  0.00000000  0.00000000  0.16657600  1.0
  Fe  Fe9  1  0.33333333  0.33333333  0.27760600  1.0
  Fe  Fe10  1  0.66666667  0.66666667  0.30564700  1.0
  Fe  Fe11  1  0.00000000  0.00000000  0.24999300  1.0
  Fe  Fe12  1  0.33333333  0.33333333  0.19461600  1.0
  Fe  Fe13  1  0.66666667  0.66666667  0.38927900  1.0
  Fe  Fe14  1  0.00000000  0.00000000  0.33362400  1.0
  Fe  Fe15  1  0.33333333  0.33333333  0.44323000  1.0
  Fe  Fe16  1  0.66666667  0.66666667  0.46990700  1.0
  Fe  Fe17  1  0.00000000  0.00000000  0.42030500  1.0
  Fe  Fe18  1  0.33333333  0.33333333  0.36124100  1.0
