# generated using pymatgen
data_Si
_symmetry_space_group_name_H-M   'P 1'
_cell_length_a   3.86697465
_cell_length_b   11.60092396
_cell_length_c   32.81236800
_cell_angle_alpha   90.00000000
_cell_angle_beta   90.00000000
_cell_angle_gamma   90.00000000
_symmetry_Int_Tables_number   1
_chemical_formula_structural   Si
_chemical_formula_sum   Si36
_cell_volume   1471.97854134
_cell_formula_units_Z   36
loop_
 _symmetry_equiv_pos_site_id
 _symmetry_equiv_pos_as_xyz
  1  'x, y, z'
loop_
 _atom_site_type_symbol
 _atom_site_label
 _atom_site_symmetry_multiplicity
 _atom_site_fract_x
 _atom_site_fract_y
 _atom_site_fract_z
 _atom_site_occupancy
  Si  Si1  1  0.00000500  0.45729500  0.94760300  1.0
  Si  Si2  1  0.99999600  0.89460700  0.88450900  1.0
  Si  Si3  1  0.00000300  0.92086300  0.99555300  1.0
  Si  Si4  1  0.99999800  0.32975900  0.83466000  1.0
  Si  Si5  1  0.99999800  0.77418500  0.77788200  1.0
  Si  Si6  1  0.99999900  0.22406200  0.72159400  1.0
  Si  Si7  1  0.99999900  0.67076500  0.66418200  1.0
  Si  Si8  1  0.99999300  0.10523400  0.61335200  1.0
  Si  Si9  1  0.00000000  0.54255400  0.56992900  1.0
  Si  Si10  1  0.99999800  0.38846100  0.76430100  1.0
  Si  Si11  1  0.00000100  0.83109200  0.70919500  1.0
  Si  Si12  1  0.99999800  0.94650200  0.81614800  1.0
  Si  Si13  1  0.99999800  0.27801600  0.65188900  1.0
  Si  Si14  1  0.00000000  0.73399900  0.59386800  1.0
  Si  Si15  1  0.00000600  0.09470900  0.53888500  1.0
  Si  Si16  1  0.00000800  0.67376600  0.95583800  1.0
  Si  Si17  1  0.99999900  0.04085900  0.93411300  1.0
  Si  Si18  1  0.99999800  0.49843000  0.87535600  1.0
  Si  Si19  1  0.49999800  0.61084900  0.86201100  1.0
  Si  Si20  1  0.49999800  0.05774000  0.80469700  1.0
  Si  Si21  1  0.49999900  0.15495800  0.92001200  1.0
  Si  Si22  1  0.49999900  0.50041000  0.74958100  1.0
  Si  Si23  1  0.50000100  0.94233700  0.69773800  1.0
  Si  Si24  1  0.49999900  0.39042100  0.63854000  1.0
  Si  Si25  1  0.49999900  0.84810500  0.57976900  1.0
  Si  Si26  1  0.50000800  0.21513700  0.55804800  1.0
  Si  Si27  1  0.50000500  0.79421700  0.97499300  1.0
  Si  Si28  1  0.49999800  0.66476500  0.79231000  1.0
  Si  Si29  1  0.49999900  0.11464100  0.73601400  1.0
  Si  Si30  1  0.49999800  0.21810200  0.84968900  1.0
  Si  Si31  1  0.49999900  0.55911100  0.67922000  1.0
  Si  Si32  1  0.49999400  0.99432100  0.62938000  1.0
  Si  Si33  1  0.50000200  0.43161700  0.56629800  1.0
  Si  Si34  1  0.50000500  0.96806200  0.51832200  1.0
  Si  Si35  1  0.50000500  0.34637000  0.94399100  1.0
  Si  Si36  1  0.49999600  0.78367900  0.90053100  1.0
