# generated using pymatgen
data_Si
_symmetry_space_group_name_H-M   'P 1'
_cell_length_a   3.86697465
_cell_length_b   6.69779657
_cell_length_c   29.70279592
_cell_angle_alpha   92.15381448
_cell_angle_beta   90.00000000
_cell_angle_gamma   106.77865488
_symmetry_Int_Tables_number   1
_chemical_formula_structural   Si
_chemical_formula_sum   Si18
_cell_volume   735.98927067
_cell_formula_units_Z   18
loop_
 _symmetry_equiv_pos_site_id
 _symmetry_equiv_pos_as_xyz
  1  'x, y, z'
loop_
 _atom_site_type_symbol
 _atom_site_label
 _atom_site_symmetry_multiplicity
 _atom_site_fract_x
 _atom_site_fract_y
 _atom_site_fract_z
 _atom_site_occupancy
  Si  Si1  1  0.25719400  0.51438800  0.41012300  1.0
  Si  Si2  1  0.70894700  0.41789500  0.29333800  1.0
  Si  Si3  1  0.98239200  0.96478300  0.35431300  1.0
  Si  Si4  1  0.31664400  0.63328600  0.29180700  1.0
  Si  Si5  1  0.50835000  0.01670200  0.30921100  1.0
  Si  Si6  1  0.80000600  0.60001100  0.36792100  1.0
  Si  Si7  1  0.08904800  0.17809500  0.57605000  1.0
  Si  Si8  1  0.53468900  0.06937800  0.46527700  1.0
  Si  Si9  1  0.81215100  0.62430300  0.52066900  1.0
  Si  Si10  1  0.07761900  0.15523800  0.42395000  1.0
  Si  Si11  1  0.35451600  0.70903000  0.47933100  1.0
  Si  Si12  1  0.63197700  0.26395500  0.53472300  1.0
  Si  Si13  1  0.85002300  0.70004700  0.70819300  1.0
  Si  Si14  1  0.36666100  0.73332200  0.63207900  1.0
  Si  Si15  1  0.65831600  0.31663200  0.69078900  1.0
  Si  Si16  1  0.90947200  0.81894500  0.58987700  1.0
  Si  Si17  1  0.18427500  0.36855000  0.64568700  1.0
  Si  Si18  1  0.45772000  0.91543800  0.70666200  1.0
