# generated using pymatgen
data_Fe
_symmetry_space_group_name_H-M   'P 1'
_cell_length_a   4.00279573
_cell_length_b   8.94990449
_cell_length_c   24.01677507
_cell_angle_alpha   102.91718348
_cell_angle_beta   89.99780878
_cell_angle_gamma   77.08281072
_symmetry_Int_Tables_number   1
_chemical_formula_structural   Fe
_chemical_formula_sum   Fe36
_cell_volume   816.26415564
_cell_formula_units_Z   36
loop_
 _symmetry_equiv_pos_site_id
 _symmetry_equiv_pos_as_xyz
  1  'x, y, z'
loop_
 _atom_site_type_symbol
 _atom_site_label
 _atom_site_symmetry_multiplicity
 _atom_site_fract_x
 _atom_site_fract_y
 _atom_site_fract_z
 _atom_site_occupancy
  Fe  Fe1  1  0.82988700  0.34070000  0.27006300  1.0
  Fe  Fe2  1  0.66544300  0.66942000  0.29768100  1.0
  Fe  Fe3  1  0.00044300  0.99917000  0.40848300  1.0
  Fe  Fe4  1  0.50306600  0.99420900  0.32623600  1.0
  Fe  Fe5  1  0.33428300  0.33156200  0.35313100  1.0
  Fe  Fe6  1  0.16660000  0.66690400  0.38088800  1.0
  Fe  Fe7  1  0.75029100  0.49952900  0.36717500  1.0
  Fe  Fe8  1  0.58383700  0.83230300  0.39528200  1.0
  Fe  Fe9  1  0.92056800  0.15902400  0.33478100  1.0
  Fe  Fe10  1  0.41621600  0.16814600  0.26031900  1.0
  Fe  Fe11  1  0.24952800  0.50133400  0.28414800  1.0
  Fe  Fe12  1  0.08394700  0.83228900  0.30957900  1.0
  Fe  Fe13  1  0.83390000  0.33212400  0.43658100  1.0
  Fe  Fe14  1  0.66645800  0.66700400  0.46567600  1.0
  Fe  Fe15  1  0.99971600  0.00049400  0.57706100  1.0
  Fe  Fe16  1  0.49983700  0.00024100  0.49330000  1.0
  Fe  Fe17  1  0.33343100  0.33298600  0.52088100  1.0
  Fe  Fe18  1  0.16669000  0.66666667  0.54881300  1.0
  Fe  Fe19  1  0.75016100  0.49965900  0.53433100  1.0
  Fe  Fe20  1  0.58263400  0.83453400  0.56342100  1.0
  Fe  Fe21  1  0.91680700  0.16643100  0.50669400  1.0
  Fe  Fe22  1  0.41699700  0.16617300  0.42293200  1.0
  Fe  Fe23  1  0.24995900  0.50001400  0.45119100  1.0
  Fe  Fe24  1  0.08306900  0.83366200  0.47912100  1.0
  Fe  Fe25  1  0.83269800  0.33435700  0.60471900  1.0
  Fe  Fe26  1  0.66637300  0.66715000  0.63283500  1.0
  Fe  Fe27  1  0.00062800  0.99858500  0.73968000  1.0
  Fe  Fe28  1  0.49605200  0.00761000  0.66520900  1.0
  Fe  Fe29  1  0.33274400  0.33432100  0.69040900  1.0
  Fe  Fe30  1  0.16723200  0.66539700  0.71586000  1.0
  Fe  Fe31  1  0.75132900  0.49722900  0.70232400  1.0
  Fe  Fe32  1  0.58683400  0.82604200  0.72994600  1.0
  Fe  Fe33  1  0.91372600  0.17240700  0.67375200  1.0
  Fe  Fe34  1  0.41625300  0.16750400  0.59151000  1.0
  Fe  Fe35  1  0.25003600  0.49976400  0.61912300  1.0
  Fe  Fe36  1  0.08232800  0.83508600  0.64686400  1.0
