# generated using pymatgen
data_Fe
_symmetry_space_group_name_H-M   'P 1'
_cell_length_a   4.00278088
_cell_length_b   6.32877809
_cell_length_c   33.96392301
_cell_angle_alpha   89.99792978
_cell_angle_beta   89.99763812
_cell_angle_gamma   71.55803414
_symmetry_Int_Tables_number   1
_chemical_formula_structural   Fe
_chemical_formula_sum   Fe36
_cell_volume   816.21214671
_cell_formula_units_Z   36
loop_
 _symmetry_equiv_pos_site_id
 _symmetry_equiv_pos_as_xyz
  1  'x, y, z'
loop_
 _atom_site_type_symbol
 _atom_site_label
 _atom_site_symmetry_multiplicity
 _atom_site_fract_x
 _atom_site_fract_y
 _atom_site_fract_z
 _atom_site_occupancy
  Fe  Fe1  1  0.77216500  0.45597500  0.02699600  1.0
  Fe  Fe2  1  0.55803400  0.88413600  0.05543600  1.0
  Fe  Fe3  1  0.00004900  0.99984800  0.25006300  1.0
  Fe  Fe4  1  0.33333333  0.33349500  0.08234300  1.0
  Fe  Fe5  1  0.11078100  0.77851700  0.11019200  1.0
  Fe  Fe6  1  0.88941000  0.22107600  0.13829700  1.0
  Fe  Fe7  1  0.66666667  0.66639600  0.16663000  1.0
  Fe  Fe8  1  0.44453800  0.11066000  0.19436100  1.0
  Fe  Fe9  1  0.22237300  0.55514200  0.22209300  1.0
  Fe  Fe10  1  0.72273100  0.55468500  0.09657800  1.0
  Fe  Fe11  1  0.49994100  0.00008700  0.12446600  1.0
  Fe  Fe12  1  0.94596000  0.10827100  0.06553800  1.0
  Fe  Fe13  1  0.27781900  0.44415600  0.15246900  1.0
  Fe  Fe14  1  0.05564200  0.88854800  0.18036500  1.0
  Fe  Fe15  1  0.83348800  0.33279900  0.20821800  1.0
  Fe  Fe16  1  0.61127700  0.77739300  0.23610400  1.0
  Fe  Fe17  1  0.38933200  0.22166500  0.01601900  1.0
  Fe  Fe18  1  0.16531500  0.66959900  0.03971600  1.0
  Fe  Fe19  1  0.77742000  0.44506100  0.27781500  1.0
  Fe  Fe20  1  0.55521900  0.88968400  0.30569600  1.0
  Fe  Fe21  1  0.99981300  0.00024600  0.49783900  1.0
  Fe  Fe22  1  0.33307200  0.33387000  0.33354100  1.0
  Fe  Fe23  1  0.11103500  0.77812600  0.36142700  1.0
  Fe  Fe24  1  0.88892600  0.22220000  0.38942200  1.0
  Fe  Fe25  1  0.66623700  0.66747500  0.41730000  1.0
  Fe  Fe26  1  0.44306700  0.11374400  0.44832400  1.0
  Fe  Fe27  1  0.22383400  0.55226400  0.47412200  1.0
  Fe  Fe28  1  0.72205900  0.55603700  0.34727100  1.0
  Fe  Fe29  1  0.49943900  0.00116500  0.37560200  1.0
  Fe  Fe30  1  0.94416100  0.11175300  0.31956500  1.0
  Fe  Fe31  1  0.27814100  0.44365600  0.40368000  1.0
  Fe  Fe32  1  0.05563100  0.88864200  0.43153500  1.0
  Fe  Fe33  1  0.83106100  0.33779900  0.45842400  1.0
  Fe  Fe34  1  0.61710700  0.76577800  0.48686000  1.0
  Fe  Fe35  1  0.38856500  0.22269000  0.26386300  1.0
  Fe  Fe36  1  0.16634000  0.66736000  0.29183100  1.0
