# generated using pymatgen
data_Si
_symmetry_space_group_name_H-M   'P 1'
_cell_length_a   5.46872800
_cell_length_b   8.64681819
_cell_length_c   20.82429581
_cell_angle_alpha   94.76364169
_cell_angle_beta   90.00000000
_cell_angle_gamma   90.00000000
_symmetry_Int_Tables_number   1
_chemical_formula_structural   Si
_chemical_formula_sum   Si24
_cell_volume   981.31902801
_cell_formula_units_Z   24
loop_
 _symmetry_equiv_pos_site_id
 _symmetry_equiv_pos_as_xyz
  1  'x, y, z'
loop_
 _atom_site_type_symbol
 _atom_site_label
 _atom_site_symmetry_multiplicity
 _atom_site_fract_x
 _atom_site_fract_y
 _atom_site_fract_z
 _atom_site_occupancy
  Si  Si1  1  0.99671700  0.81294400  0.14326300  1.0
  Si  Si2  1  0.05161800  0.43642700  0.05763800  1.0
  Si  Si3  1  0.99890100  0.22943100  0.22733100  1.0
  Si  Si4  1  0.25328300  0.31294400  0.14326300  1.0
  Si  Si5  1  0.19838200  0.93642700  0.05763800  1.0
  Si  Si6  1  0.25109900  0.72943100  0.22733100  1.0
  Si  Si7  1  0.52018700  0.10648300  0.10108400  1.0
  Si  Si8  1  0.32874600  0.66449100  0.05581100  1.0
  Si  Si9  1  0.50475900  0.52084000  0.18885200  1.0
  Si  Si10  1  0.74524100  0.02084000  0.18885200  1.0
  Si  Si11  1  0.72981300  0.60648300  0.10108400  1.0
  Si  Si12  1  0.92125400  0.16449100  0.05581100  1.0
  Si  Si13  1  0.02018700  0.06018300  0.39891600  1.0
  Si  Si14  1  0.00475900  0.64582800  0.31114800  1.0
  Si  Si15  1  0.82874600  0.50217500  0.44418900  1.0
  Si  Si16  1  0.22981300  0.56018300  0.39891600  1.0
  Si  Si17  1  0.24524100  0.14582800  0.31114800  1.0
  Si  Si18  1  0.42125400  0.00217500  0.44418900  1.0
  Si  Si19  1  0.49671700  0.35372200  0.35673700  1.0
  Si  Si20  1  0.49890100  0.93723500  0.27266900  1.0
  Si  Si21  1  0.55161800  0.73024100  0.44236200  1.0
  Si  Si22  1  0.69838200  0.23024100  0.44236200  1.0
  Si  Si23  1  0.75328300  0.85372200  0.35673700  1.0
  Si  Si24  1  0.75109900  0.43723500  0.27266900  1.0
