# generated using pymatgen
data_Si
_symmetry_space_group_name_H-M   'P 1'
_cell_length_a   3.86697465
_cell_length_b   8.64681819
_cell_length_c   30.20203753
_cell_angle_alpha   86.71745780
_cell_angle_beta   86.32950349
_cell_angle_gamma   77.07903362
_symmetry_Int_Tables_number   1
_chemical_formula_structural   Si
_chemical_formula_sum   Si24
_cell_volume   981.31902724
_cell_formula_units_Z   24
loop_
 _symmetry_equiv_pos_site_id
 _symmetry_equiv_pos_as_xyz
  1  'x, y, z'
loop_
 _atom_site_type_symbol
 _atom_site_label
 _atom_site_symmetry_multiplicity
 _atom_site_fract_x
 _atom_site_fract_y
 _atom_site_fract_z
 _atom_site_occupancy
  Si  Si1  1  0.65489100  0.66751800  0.02269700  1.0
  Si  Si2  1  0.33983400  0.25499900  0.06533600  1.0
  Si  Si3  1  0.00081000  0.76356800  0.23481100  1.0
  Si  Si4  1  0.99948700  0.89055400  0.11047300  1.0
  Si  Si5  1  0.66651900  0.51680800  0.15015100  1.0
  Si  Si6  1  0.33333333  0.14109200  0.19226300  1.0
  Si  Si7  1  0.58416800  0.60799800  0.22366800  1.0
  Si  Si8  1  0.22311900  0.51668400  0.03707800  1.0
  Si  Si9  1  0.91625800  0.98426500  0.18321800  1.0
  Si  Si10  1  0.91836800  0.10461400  0.05864700  1.0
  Si  Si11  1  0.58247500  0.73654500  0.09850800  1.0
  Si  Si12  1  0.25048500  0.35951500  0.13951600  1.0
  Si  Si13  1  0.66583200  0.39200200  0.27633200  1.0
  Si  Si14  1  0.33374200  0.01573500  0.31678200  1.0
  Si  Si15  1  0.02688100  0.48331600  0.46292200  1.0
  Si  Si16  1  0.99951500  0.64048500  0.36048400  1.0
  Si  Si17  1  0.66752500  0.26345500  0.40149200  1.0
  Si  Si18  1  0.33163200  0.89538600  0.44135300  1.0
  Si  Si19  1  0.59510900  0.33248200  0.47730300  1.0
  Si  Si20  1  0.24919000  0.23643200  0.26518900  1.0
  Si  Si21  1  0.91016600  0.74500100  0.43466400  1.0
  Si  Si22  1  0.91667700  0.85890800  0.30773700  1.0
  Si  Si23  1  0.58348100  0.48319200  0.34984900  1.0
  Si  Si24  1  0.25051400  0.10944600  0.38952700  1.0
