# generated using pymatgen
data_Fe
_symmetry_space_group_name_H-M   'P 1'
_cell_length_a   2.45121159
_cell_length_b   4.00305452
_cell_length_c   27.72829015
_cell_angle_alpha   90.00000000
_cell_angle_beta   89.98895485
_cell_angle_gamma   90.00000000
_symmetry_Int_Tables_number   1
_chemical_formula_structural   Fe
_chemical_formula_sum   Fe12
_cell_volume   272.07922902
_cell_formula_units_Z   12
loop_
 _symmetry_equiv_pos_site_id
 _symmetry_equiv_pos_as_xyz
  1  'x, y, z'
loop_
 _atom_site_type_symbol
 _atom_site_label
 _atom_site_symmetry_multiplicity
 _atom_site_fract_x
 _atom_site_fract_y
 _atom_site_fract_z
 _atom_site_occupancy
  Fe  Fe1  1  0.93639400  0.00000000  0.00015200  1.0
  Fe  Fe2  1  0.34079100  0.50000000  0.96156100  1.0
  Fe  Fe3  1  0.66003200  0.00000000  0.91749500  1.0
  Fe  Fe4  1  0.99959000  0.50000000  0.87563400  1.0
  Fe  Fe5  1  0.33516100  0.00000000  0.83355000  1.0
  Fe  Fe6  1  0.66773300  0.50000000  0.79175300  1.0
  Fe  Fe7  1  0.00006800  0.00000000  0.74988500  1.0
  Fe  Fe8  1  0.33276400  0.50000000  0.70810500  1.0
  Fe  Fe9  1  0.66755500  0.00000000  0.66601800  1.0
  Fe  Fe10  1  0.00619300  0.50000000  0.62416700  1.0
  Fe  Fe11  1  0.32522900  0.00000000  0.58013200  1.0
  Fe  Fe12  1  0.72848900  0.50000000  0.54154900  1.0
