# generated using pymatgen
data_Si
_symmetry_space_group_name_H-M   'P 1'
_cell_length_a   3.86697465
_cell_length_b   5.46872800
_cell_length_c   30.93579723
_cell_angle_alpha   90.00000000
_cell_angle_beta   90.00000000
_cell_angle_gamma   90.00000000
_symmetry_Int_Tables_number   1
_chemical_formula_structural   Si
_chemical_formula_sum   Si16
_cell_volume   654.21268511
_cell_formula_units_Z   16
loop_
 _symmetry_equiv_pos_site_id
 _symmetry_equiv_pos_as_xyz
  1  'x, y, z'
loop_
 _atom_site_type_symbol
 _atom_site_label
 _atom_site_symmetry_multiplicity
 _atom_site_fract_x
 _atom_site_fract_y
 _atom_site_fract_z
 _atom_site_occupancy
  Si  Si1  1  0.00000000  0.99884600  0.87511700  1.0
  Si  Si2  1  0.00000000  0.98321800  0.99307400  1.0
  Si  Si3  1  0.00000000  0.25013700  0.81252500  1.0
  Si  Si4  1  0.00000000  0.25691300  0.93677400  1.0
  Si  Si5  1  0.50000000  0.49308700  0.93677400  1.0
  Si  Si6  1  0.50000000  0.49986300  0.81252500  1.0
  Si  Si7  1  0.50000000  0.76678200  0.99307400  1.0
  Si  Si8  1  0.50000000  0.75115400  0.87511700  1.0
  Si  Si9  1  0.00000000  0.99308700  0.62572600  1.0
  Si  Si10  1  0.00000000  0.99986300  0.74997500  1.0
  Si  Si11  1  0.00000000  0.26678200  0.56942600  1.0
  Si  Si12  1  0.00000000  0.25115400  0.68738300  1.0
  Si  Si13  1  0.50000000  0.49884600  0.68738300  1.0
  Si  Si14  1  0.50000000  0.48321800  0.56942600  1.0
  Si  Si15  1  0.50000000  0.75013700  0.74997500  1.0
  Si  Si16  1  0.50000000  0.75691300  0.62572600  1.0
