# generated using pymatgen
data_Fe
_symmetry_space_group_name_H-M   'P 1'
_cell_length_a   2.83159400
_cell_length_b   10.20492296
_cell_length_c   20.40984537
_cell_angle_alpha   90.00000234
_cell_angle_beta   90.00000000
_cell_angle_gamma   90.00000000
_symmetry_Int_Tables_number   1
_chemical_formula_structural   Fe
_chemical_formula_sum   Fe26
_cell_volume   589.76694570
_cell_formula_units_Z   26
loop_
 _symmetry_equiv_pos_site_id
 _symmetry_equiv_pos_as_xyz
  1  'x, y, z'
loop_
 _atom_site_type_symbol
 _atom_site_label
 _atom_site_symmetry_multiplicity
 _atom_site_fract_x
 _atom_site_fract_y
 _atom_site_fract_z
 _atom_site_occupancy
  Fe  Fe1  1  0.00000000  0.38121400  0.45514000  1.0
  Fe  Fe2  1  0.00000000  0.15338600  0.37562600  1.0
  Fe  Fe3  1  0.00000000  0.76853900  0.41895200  1.0
  Fe  Fe4  1  0.00000000  0.53868200  0.33945900  1.0
  Fe  Fe5  1  0.00000000  0.30791700  0.25910300  1.0
  Fe  Fe6  1  0.00000000  0.07709300  0.18005800  1.0
  Fe  Fe7  1  0.00000000  0.92277800  0.29769100  1.0
  Fe  Fe8  1  0.00000000  0.69189400  0.22228800  1.0
  Fe  Fe9  1  0.00000000  0.46150300  0.14242400  1.0
  Fe  Fe10  1  0.00000000  0.23294500  0.06296400  1.0
  Fe  Fe11  1  0.00000000  0.99061900  0.48732200  1.0
  Fe  Fe12  1  0.00000000  0.84733600  0.10633300  1.0
  Fe  Fe13  1  0.00000000  0.62132100  0.02689600  1.0
  Fe  Fe14  1  0.50000000  0.34617400  0.35756300  1.0
  Fe  Fe15  1  0.50000000  0.11580500  0.27772500  1.0
  Fe  Fe16  1  0.50000000  0.73060100  0.31995900  1.0
  Fe  Fe17  1  0.50000000  0.49982200  0.24089400  1.0
  Fe  Fe18  1  0.50000000  0.26900400  0.16054200  1.0
  Fe  Fe19  1  0.50000000  0.03910500  0.08106200  1.0
  Fe  Fe20  1  0.50000000  0.88491600  0.20231400  1.0
  Fe  Fe21  1  0.50000000  0.65427700  0.12437000  1.0
  Fe  Fe22  1  0.50000000  0.42646900  0.04483400  1.0
  Fe  Fe23  1  0.50000000  0.18643300  0.47307500  1.0
  Fe  Fe24  1  0.50000000  0.96031400  0.39368000  1.0
  Fe  Fe25  1  0.50000000  0.81712300  0.01268200  1.0
  Fe  Fe26  1  0.50000000  0.57472900  0.43703200  1.0
